@<TRIPOS>MOLECULE
4PG3-ligand.pdb
 41 43 0 0 0
SMALL
GASTEIGER
Energy = 0

@<TRIPOS>ATOM
      1 O4        -26.3530   22.8670  -26.4650 O.3   602  KRS        -0.2448
      2 C8        -25.3430   22.9820  -25.8020 C.    602  KRS         0.3433
      3 C9        -24.6380   24.2260  -25.6480 C.    602  KRS         0.1038
      4 C5        -23.4750   24.2800  -24.8990 C.    602  KRS        -0.0229
      5 C4        -22.8180   25.4750  -24.7640 C.    602  KRS        -0.0159
      6 C3        -23.3320   26.6060  -25.3710 C.    602  KRS         0.1206
      7 O2        -22.6590   27.7680  -25.2140 O.3   602  KRS        -0.5066
      8 C2        -24.4760   26.5650  -26.1050 C.    602  KRS         0.0221
      9 C1        -25.1250   25.3910  -26.2430 C.    602  KRS         0.1345
     10 O1        -26.2650   25.3860  -26.9830 O.3   602  KRS        -0.5058
     11 O3        -24.8130   21.8670  -25.3110 O.3   602  KRS        -0.4574
     12 C7        -23.9500   21.9150  -24.1310 C.    602  KRS         0.1097
     13 C6        -22.9440   23.0280  -24.2560 C.    602  KRS         0.0107
     14 C10       -23.3160   20.5580  -24.0180 C.    602  KRS         0.0110
     15 C11       -24.2810   19.4430  -23.7500 C.    602  KRS         0.0624
     16 O5        -25.1330   19.7390  -22.6520 O.3   602  KRS        -0.3735
     17 C12       -24.4860   19.7280  -21.3820 C.    602  KRS         0.0563
     18 C16       -25.5270   20.0810  -20.3750 C.    602  KRS        -0.0387
     19 C13       -23.8610   18.3840  -21.1310 C.    602  KRS        -0.0268
     20 C14       -22.9000   18.0250  -22.2230 C.    602  KRS        -0.0484
     21 C15       -23.5910   18.0990  -23.5540 C.    602  KRS        -0.0264
     22 H1        -22.0350   25.5270  -24.2670 H     602  KRS         0.0657
     23 H2        -22.6710   28.1910  -25.9200 H     602  KRS         0.2921
     24 H3        -24.8070   27.3380  -26.5070 H     602  KRS         0.0691
     25 H4        -26.0770   25.4560  -27.7770 H     602  KRS         0.2922
     26 H5        -24.5040   22.0740  -23.3380 H     602  KRS         0.0738
     27 H6        -22.6140   23.2490  -23.3710 H     602  KRS         0.0349
     28 H7        -22.1900   22.7090  -24.7750 H     602  KRS         0.0349
     29 H8        -22.8420   20.3650  -24.8420 H     602  KRS         0.0326
     30 H9        -22.6620   20.5800  -23.3030 H     602  KRS         0.0326
     31 H10       -24.8510   19.3590  -24.5410 H     602  KRS         0.0597
     32 H11       -23.7870   20.4140  -21.3740 H     602  KRS         0.0593
     33 H12       -25.4160   20.9960  -20.1070 H     602  KRS         0.0254
     34 H13       -25.4380   19.5080  -19.6100 H     602  KRS         0.0254
     35 H14       -26.3980   19.9630  -20.7620 H     602  KRS         0.0254
     36 H15       -23.3940   18.3990  -20.2810 H     602  KRS         0.0290
     37 H16       -24.5570   17.7090  -21.0790 H     602  KRS         0.0290
     38 H17       -22.5600   17.1270  -22.0780 H     602  KRS         0.0267
     39 H18       -22.1490   18.6390  -22.2110 H     602  KRS         0.0267
     40 H19       -24.2480   17.3870  -23.6130 H     602  KRS         0.0290
     41 H20       -22.9400   17.9630  -24.2610 H     602  KRS         0.0290
@<TRIPOS>BOND
     1    25    10    1
     2    10     9    1
     3    24     8    1
     4     1     2    2
     5     9     8   ar
     6     9     3   ar
     7     8     6   ar
     8    23     7    1
     9     2     3    1
    10     2    11    1
    11     3     4   ar
    12     6     7    1
    13     6     5   ar
    14    11    12    1
    15     4     5   ar
    16     4    13    1
    17    29    14    1
    18    28    13    1
    19     5    22    1
    20    31    15    1
    21    41    21    1
    22    13    12    1
    23    13    27    1
    24    12    14    1
    25    12    26    1
    26    14    15    1
    27    14    30    1
    28    15    21    1
    29    15    16    1
    30    40    21    1
    31    21    20    1
    32    16    17    1
    33    20    39    1
    34    20    38    1
    35    20    19    1
    36    17    32    1
    37    17    19    1
    38    17    18    1
    39    19    37    1
    40    19    36    1
    41    35    18    1
    42    18    33    1
    43    18    34    1

