@<TRIPOS>MOLECULE
pfkrs1-cladosporin-adj-align-ligand.pdb
 41 43 0 0 0
SMALL
GASTEIGER
Energy = 0

@<TRIPOS>ATOM
      1 C1        -24.1830   22.4640  -18.8390 C.      1  UNL        -0.0387
      2 C2        -23.4670   21.6560  -19.9240 C.      1  UNL         0.0563
      3 C3        -23.3940   20.1870  -19.5020 C.      1  UNL        -0.0268
      4 C4        -22.7300   19.3760  -20.6190 C.      1  UNL        -0.0484
      5 C5        -23.5210   19.5700  -21.9160 C.      1  UNL        -0.0264
      6 C6        -23.5880   21.0640  -22.2450 C.      1  UNL         0.0624
      7 C7        -24.4290   21.2710  -23.5060 C.      1  UNL         0.0110
      8 C8        -24.4960   22.7640  -23.8350 C.      1  UNL         0.1097
      9 C9        -25.3350   22.9710  -25.0970 C.      1  UNL         0.0107
     10 C10       -25.2140   24.3950  -25.5740 C.      1  UNL        -0.0229
     11 C11       -26.1760   24.9290  -26.4000 C.      1  UNL        -0.0159
     12 C12       -26.0660   26.2420  -26.8450 C.      1  UNL         0.1206
     13 O13       -27.0210   26.7600  -27.6580 O.3     1  UNL        -0.5066
     14 C14       -24.9870   27.0270  -26.4620 C.      1  UNL         0.0221
     15 C15       -24.0120   26.5030  -25.6310 C.      1  UNL         0.1345
     16 O16       -22.9550   27.2640  -25.2530 O.3     1  UNL        -0.5058
     17 C17       -24.1260   25.1800  -25.1810 C.      1  UNL         0.1038
     18 C18       -23.1040   24.6020  -24.2870 C.      1  UNL         0.3433
     19 O19       -22.2400   25.2910  -23.7800 O.3     1  UNL        -0.2448
     20 O20       -23.1710   23.2650  -24.0550 O.3     1  UNL        -0.4574
     21 O21       -24.1890   21.7630  -21.1530 O.3     1  UNL        -0.3735
     22 1H1       -23.6330   22.3820  -17.9020 H       1  UNL         0.0254
     23 2H1       -24.2370   23.5110  -19.1400 H       1  UNL         0.0254
     24 3H1       -25.1920   22.0740  -18.7020 H       1  UNL         0.0254
     25 H2        -22.4580   22.0460  -20.0600 H       1  UNL         0.0593
     26 1H3       -22.8060   20.0990  -18.5880 H       1  UNL         0.0290
     27 2H3       -24.4010   19.8080  -19.3270 H       1  UNL         0.0290
     28 1H4       -21.7060   19.7220  -20.7610 H       1  UNL         0.0267
     29 2H4       -22.7240   18.3200  -20.3480 H       1  UNL         0.0267
     30 1H5       -23.0230   19.0400  -22.7290 H       1  UNL         0.0290
     31 2H5       -24.5300   19.1790  -21.7890 H       1  UNL         0.0290
     32 H6        -22.5820   21.4460  -22.4110 H       1  UNL         0.0597
     33 1H7       -23.9720   20.7360  -24.3390 H       1  UNL         0.0326
     34 2H7       -25.4360   20.8890  -23.3390 H       1  UNL         0.0326
     35 H8        -24.9540   23.2990  -23.0020 H       1  UNL         0.0738
     36 1H9       -24.9830   22.2970  -25.8780 H       1  UNL         0.0349
     37 2H9       -26.3790   22.7510  -24.8770 H       1  UNL         0.0349
     38 H11       -27.0190   24.3260  -26.7030 H       1  UNL         0.0657
     39 H13       -27.7340   26.1430  -27.8720 H       1  UNL         0.2921
     40 H14       -24.9090   28.0460  -26.8120 H       1  UNL         0.0691
     41 H16       -22.9670   28.1610  -25.6150 H       1  UNL         0.2922
@<TRIPOS>BOND
     1    39    13    1
     2    13    12    1
     3    12    14   ar
     4    12    11   ar
     5    40    14    1
     6    38    11    1
     7    14    15   ar
     8    11    10   ar
     9    36     9    1
    10    15    16    1
    11    15    17   ar
    12    41    16    1
    13    10    17   ar
    14    10     9    1
    15    17    18    1
    16     9    37    1
    17     9     8    1
    18    33     7    1
    19    18    20    1
    20    18    19    2
    21    20     8    1
    22     8     7    1
    23     8    35    1
    24     7    34    1
    25     7     6    1
    26    30     5    1
    27    32     6    1
    28     6     5    1
    29     6    21    1
    30     5    31    1
    31     5     4    1
    32    21     2    1
    33    28     4    1
    34     4    29    1
    35     4     3    1
    36    25     2    1
    37     2     3    1
    38     2     1    1
    39     3    27    1
    40     3    26    1
    41    23     1    1
    42     1    24    1
    43     1    22    1

