##########                 Name:         CLADOSPORIN0
##########          Protonation:                   93
##########               SMILES:   C[C@@H]1CCC[C@@H](O1)C[C@H]2Cc3cc(cc(c3C(=O)O2)O)O
##########            Long Name:   8-dihydroxy-3-[[(2R,6R)-6-methyltetrahydropyran-2-yl]methyl]isochroman-1-one
##########          FlexRecCode: 1
##########               Number:                    3
##########   Ligand Source File: /raid2/people/rgc/Examples/tdt/part2/cladosporin/build_clad/cladosporin-0000001.
##########           GlobalRank: 1
##########                 Rank:                    1
##########               Setnum:                   27
##########             Matchnum:                  233
##########                Cloud:                    1
##########        Electrostatic:           -15.178664
##########        Van der Waals:           -21.583109
##########  Ligand Polar Desolv:             5.052612
########## Ligand Apolar Desolv:            -1.232596
##########      Internal Energy:             0.000000
##########      Receptor Energy: 0.0
########## Receptor Desolvation:             0.000000
########## Receptor Hydrophobic:             0.000000
##########         Total Energy: -32.94
##########        Ligand Charge:             0.000000
##########            Arbitrary:    +999.9990
##########     heavy atom count:   21
##########           pose count:    1
##########        Ligand Energy:             0.000000

@<TRIPOS>MOLECULE
     CLADOSPORIN0        93
   41    43     0     0     0



@<TRIPOS>ATOM
      1 C1          8.5450    -9.1528    98.4615 C.3        1          -0.1460
      2 C2          7.3559    -9.5580    97.5880 C.3        1           0.0878
      3 C3          7.7103   -10.8198    96.7967 C.3        1          -0.1506
      4 C4          6.5381   -11.1844    95.8805 C.3        1          -0.1242
      5 C5          6.2282    -9.9939    94.9680 C.3        1          -0.1496
      6 C6          5.9311    -8.7640    95.8299 C.3        1           0.0889
      7 C7          5.6793    -7.5558    94.9255 C.3        1          -0.1042
      8 C8          5.8765    -6.2682    95.7280 C.3        1           0.1018
      9 C9          5.1631    -5.1127    95.0231 C.3        1          -0.1201
     10 C10         3.6680    -5.2641    95.1317 C.ar       1          -0.0031
     11 C11         2.8408    -4.6102    94.2477 C.ar       1          -0.1663
     12 C12         1.4595    -4.7476    94.3495 C.ar       1           0.1683
     13 O1          0.6515    -4.0996    93.4727 O.3        1          -0.4930
     14 C13         0.9032    -5.5429    95.3407 C.ar       1          -0.1915
     15 C14         1.7241    -6.2072    96.2370 C.ar       1           0.2008
     16 O2          1.1859    -6.9853    97.2090 O.3        1          -0.4758
     17 C15         3.1143    -6.0699    96.1322 C.ar       1          -0.2203
     18 C16         4.0117    -6.7735    97.0682 C.2        1           0.5295
     19 O3          3.5922    -7.6218    97.8309 O.2        1          -0.4308
     20 O4          5.3261    -6.4336    97.0416 O.3        1          -0.3534
     21 O5          7.0487    -8.4983    96.6798 O.3        1          -0.3786
     22 H1          8.7792    -9.9612    99.1541 H          1           0.0627
     23 H2          9.4099    -8.9546    97.8285 H          1           0.0712
     24 H3          8.2930    -8.2538    99.0240 H          1           0.0633
     25 H4          6.4910    -9.7565    98.2209 H          1           0.0578
     26 H5          8.5995   -10.6342    96.1942 H          1           0.0717
     27 H6          7.9020   -11.6410    97.4873 H          1           0.0730
     28 H7          6.8053   -12.0494    95.2734 H          1           0.0688
     29 H8          5.6618   -11.4183    96.4850 H          1           0.0641
     30 H9          7.0874    -9.7916    94.3285 H          1           0.0723
     31 H10         5.3599   -10.2244    94.3507 H          1           0.0745
     32 H11         5.0473    -8.9522    96.4395 H          1           0.0684
     33 H12         6.3798    -7.5746    94.0907 H          1           0.0983
     34 H13         4.6588    -7.5937    94.5444 H          1           0.0936
     35 H14         6.9409    -6.0466    95.8047 H          1           0.0890
     36 H15         5.4632    -4.1712    95.4831 H          1           0.1068
     37 H16         5.4478    -5.1031    93.9710 H          1           0.1031
     38 H17         3.2644    -3.9883    93.4730 H          1           0.1431
     39 H18        -0.2917    -4.2535    93.6194 H          1           0.4009
     40 H19        -0.1698    -5.6436    95.4138 H          1           0.1469
     41 H20         0.2193    -7.0159    97.1982 H          1           0.4010
@<TRIPOS>BOND
     1    1    2 1
     2    1   22 1
     3    1   23 1
     4    1   24 1
     5    2   21 1
     6    2    3 1
     7    2   25 1
     8    3    4 1
     9    3   26 1
    10    3   27 1
    11    4    5 1
    12    4   28 1
    13    4   29 1
    14    5    6 1
    15    5   30 1
    16    5   31 1
    17    6    7 1
    18    6   21 1
    19    6   32 1
    20    7    8 1
    21    7   33 1
    22    7   34 1
    23    8   20 1
    24    8    9 1
    25    8   35 1
    26    9   10 1
    27    9   36 1
    28    9   37 1
    29   10   17 ar
    30   10   11 ar
    31   11   12 ar
    32   11   38 1
    33   12   13 1
    34   12   14 ar
    35   13   39 1
    36   14   15 ar
    37   14   40 1
    38   15   16 1
    39   15   17 ar
    40   16   41 1
    41   17   18 1
    42   18   19 2
    43   18   20 1
